=== stdout ===

Note: No compatibility mode selected!


Circuit: * auto-generated testbench for decoupling analysis: vbat rail

Doing analysis at TEMP = 27.000000 and TNOM = 27.000000

Using SPARSE 1.3 as Direct Linear Solver

No. of Data Rows : 1201
z_min               =  3.16000e-02 at=  1.90546e+06
 meas ac f_at_zmin when z_mag=3.160001e-02 failed!

z_at_1m             =  3.36334e-02
z_at_100k           =  1.61830e-01
ngspice-46 done

=== stderr ===
Warning: singular matrix:  check node n_lpar_0

Note: Starting dynamic gmin stepping
Warning: singular matrix:  check node n_lpar_0

Warning: Dynamic gmin stepping failed
Note: Starting true gmin stepping
Warning: singular matrix:  check node n_lpar_0

Warning: singular matrix:  check node n_lpar_0

Warning: singular matrix:  check node n_lpar_0

Warning: singular matrix:  check node n_lpar_0

Warning: True gmin stepping failed
Note: Starting source stepping
Warning: source stepping failed
Note: Transient op started
Note: Transient op finished successfully

Error: measure  f_at_zmin  when(WHEN) : out of interval
Error: &f_at_zmin: no such variable.

