=== stdout ===

Note: No compatibility mode selected!


Circuit: * auto-generated testbench for decoupling analysis: +5v_media rail

Doing analysis at TEMP = 27.000000 and TNOM = 27.000000

Using SPARSE 1.3 as Direct Linear Solver

No. of Data Rows : 1201
z_min               =  1.06500e-02 at=  1.28825e+06
f_at_zmin           =  1.28819e+06
z_at_1m             =  1.07440e-02
z_at_100k           =  3.74959e-02
ngspice-46 done

=== stderr ===
Warning: singular matrix:  check node n_lpar_1

Note: Starting dynamic gmin stepping
Warning: singular matrix:  check node n_lpar_1

Warning: Dynamic gmin stepping failed
Note: Starting true gmin stepping
Warning: singular matrix:  check node n_lpar_1

Warning: singular matrix:  check node n_lpar_1

Warning: singular matrix:  check node n_lpar_1

Warning: singular matrix:  check node n_lpar_1

Warning: True gmin stepping failed
Note: Starting source stepping
Warning: source stepping failed
Note: Transient op started
Note: Transient op finished successfully

