=== stdout ===

Note: No compatibility mode selected!


Circuit: * auto-generated testbench for decoupling analysis: +5v_audio rail

Doing analysis at TEMP = 27.000000 and TNOM = 27.000000

Using SPARSE 1.3 as Direct Linear Solver

No. of Data Rows : 1201
z_min               =  3.11845e-02 at=  1.94984e+06
f_at_zmin           =  1.94981e+06
z_at_1m             =  3.32691e-02
z_at_100k           =  1.60226e-01
ngspice-46 done

=== stderr ===

