=== stdout ===

Note: No compatibility mode selected!


Circuit: * auto-generated testbench for decoupling analysis: vsys rail

Doing analysis at TEMP = 27.000000 and TNOM = 27.000000

Using SPARSE 1.3 as Direct Linear Solver

No. of Data Rows : 1201
z_min               =  7.90000e-03 at=  1.90546e+06
 meas ac f_at_zmin when z_mag=7.900003e-03 failed!

z_at_1m             =  8.40836e-03
z_at_100k           =  4.04576e-02
ngspice-46 done

=== stderr ===

Error: measure  f_at_zmin  when(WHEN) : out of interval
Error: &f_at_zmin: no such variable.

