=== stdout ===

Note: No compatibility mode selected!


Circuit: * auto-generated testbench for rc filter: r80/c80

Doing analysis at TEMP = 27.000000 and TNOM = 27.000000

Using SPARSE 1.3 as Direct Linear Solver

No. of Data Rows : 401
fc_sim              =  1.58777e+01
phase_fc            =  -7.84197e-01
ngspice-46 done

=== stderr ===

