=== stdout ===

Note: No compatibility mode selected!


Circuit: * auto-generated testbench for voltage divider: r10/r11

Doing analysis at TEMP = 27.000000 and TNOM = 27.000000

Using SPARSE 1.3 as Direct Linear Solver

No. of Data Rows : 1
ngspice-46 done

=== stderr ===

