
Note: No compatibility mode selected!


Circuit: * cadenza l2 input rc candidate -- reproducible transient testbench

Doing analysis at TEMP = 27.000000 and TNOM = 27.000000

Using SPARSE 1.3 as Direct Linear Solver

Initial Transient Solution
--------------------------

Node                                   Voltage
----                                   -------
vdd                                        3.3
bounce_gpio                                3.3
bounce_contact                             3.3
ctrl_b                                       0
g20                                        3.3
contact20                                  3.3
c20                                          0
g50                                        3.3
contact50                                  3.3
c50                                          0
g75                                        3.3
contact75                                  3.3
c75                                          0
g100                                       3.3
contact100                                 3.3
c100                                         0
g200                                       3.3
contact200                                 3.3
c200                                         0
vp_200#branch                                0
vp_100#branch                                0
vp_75#branch                                 0
vp_50#branch                                 0
vp_20#branch                                 0
vctrl_b#branch                               0
vdd#branch                           -1.98e-11


No. of Data Rows : 24248

  Measurements for Transient Analysis

bounce_min_chatter  =  1.06036e+00 at=  1.70001e-04
bounce_v_after_stable=  3.39264e-01
bounce_fall_to_vil  =   2.08008e-04
bounce_rise_to_vih  =   1.00359e-03
vmin_20us           =  2.00875e+00 at=  7.19963e-04
vmin_50us           =  1.03338e+00 at=  7.49964e-04
vmin_75us           =  6.62425e-01 at=  7.74964e-04
vmin_100us          =  4.79112e-01 at=  7.99964e-04
vmin_200us          =  3.10707e-01 at=  8.99964e-04


Total analysis time (seconds) = 0.067081

Total elapsed time (seconds) = 0.073 

Total DRAM available = 32768.000 MB.
DRAM currently available =  226.516 MB.
Maximum ngspice program size =   11.344 MB.
Current ngspice program size =   11.344 MB.

